THERMO
   300.00  1000.00  5000.00
C2H6                    C   2H   6    0    0G   300.000  5000.000  854.000     1 !\Comment: THERM23, date: 27/05/2023
END